  
       XFOIL         Version 6.99
  
 Calculated polar for: NACA 2408                                       
  
 1 1 Reynolds number fixed          Mach number fixed         
  
 xtrf =   1.000 (top)        1.000 (bottom)  
 Mach =   0.000     Re =     3.000 e 6     Ncrit =   9.000
  
   alpha    CL        CD       CDp       CM     Top_Xtr  Bot_Xtr
  ------ -------- --------- --------- -------- -------- --------
  -5.000  -0.3143   0.00658   0.00212  -0.0542   0.9387   0.0135
  -4.000  -0.2048   0.00601   0.00144  -0.0535   0.8982   0.0220
  -3.000  -0.0940   0.00562   0.00099  -0.0531   0.8447   0.0428
  -2.000   0.0171   0.00529   0.00067  -0.0529   0.7771   0.1054
  -1.000   0.1282   0.00502   0.00051  -0.0529   0.6969   0.2249
  -5.000  -0.3143   0.00658   0.00212  -0.0542   0.9386   0.0135
  -4.000  -0.2048   0.00601   0.00144  -0.0535   0.8982   0.0220
  -3.000  -0.0940   0.00562   0.00099  -0.0531   0.8447   0.0428
  -2.000   0.0171   0.00529   0.00067  -0.0529   0.7771   0.1054
  -1.000   0.1282   0.00502   0.00051  -0.0529   0.6969   0.2249
   0.000   0.2389   0.00470   0.00048  -0.0530   0.6094   0.4322
   1.000   0.3481   0.00425   0.00059  -0.0528   0.5215   0.7519
   2.000   0.4556   0.00419   0.00081  -0.0517   0.4270   0.9898
   3.000   0.5703   0.00505   0.00114  -0.0527   0.2894   1.0000
   4.000   0.6742   0.00646   0.00181  -0.0517   0.1094   1.0000
   5.000   0.7804   0.00756   0.00254  -0.0509   0.0338   1.0000
   6.000   0.8873   0.00848   0.00334  -0.0503   0.0154   1.0000
   7.000   0.9935   0.00940   0.00426  -0.0496   0.0105   1.0000
   8.000   1.0972   0.01057   0.00547  -0.0485   0.0077   1.0000
   9.000   1.1986   0.01186   0.00680  -0.0472   0.0060   1.0000
  10.000   1.2958   0.01351   0.00860  -0.0454   0.0051   1.0000
  11.000   1.3904   0.01517   0.01037  -0.0434   0.0044   1.0000
  12.000   1.4721   0.01802   0.01349  -0.0395   0.0036   1.0000
  13.000   1.5417   0.02144   0.01726  -0.0344   0.0034   1.0000
  14.000   1.6014   0.02451   0.02059  -0.0281   0.0033   1.0000
  15.000   1.6341   0.02848   0.02483  -0.0194   0.0031   1.0000
  16.000   1.6505   0.03498   0.03164  -0.0136   0.0029   1.0000
  17.000   1.6408   0.04658   0.04364  -0.0130   0.0028   1.0000
  18.000   1.5934   0.06678   0.06430  -0.0205   0.0027   1.0000
  19.000   1.4348   0.11110   0.10930  -0.0431   0.0028   1.0000
