  
       XFOIL         Version 6.99
  
 Calculated polar for: NACA 2410                                       
  
 1 1 Reynolds number fixed          Mach number fixed         
  
 xtrf =   1.000 (top)        1.000 (bottom)  
 Mach =   0.000     Re =     3.000 e 6     Ncrit =   9.000
  
   alpha    CL        CD       CDp       CM     Top_Xtr  Bot_Xtr
  ------ -------- --------- --------- -------- -------- --------
  -5.000  -0.3180   0.00663   0.00192  -0.0532   0.8859   0.0281
  -4.000  -0.2067   0.00619   0.00142  -0.0529   0.8373   0.0457
  -3.000  -0.0949   0.00583   0.00104  -0.0528   0.7781   0.0822
  -2.000   0.0171   0.00554   0.00079  -0.0528   0.7097   0.1508
  -1.000   0.1291   0.00534   0.00066  -0.0528   0.6350   0.2544
   0.000   0.2409   0.00511   0.00063  -0.0529   0.5619   0.4088
   1.000   0.3515   0.00477   0.00072  -0.0529   0.4950   0.6493
   2.000   0.4603   0.00459   0.00092  -0.0522   0.4307   0.8639
   3.000   0.5676   0.00493   0.00122  -0.0509   0.3454   0.9858
   4.000   0.6914   0.00596   0.00171  -0.0541   0.2174   1.0000
   5.000   0.7914   0.00716   0.00240  -0.0520   0.1047   1.0000
   6.000   0.8953   0.00823   0.00316  -0.0507   0.0486   1.0000
   7.000   1.0000   0.00921   0.00399  -0.0497   0.0271   1.0000
   8.000   1.1037   0.01023   0.00495  -0.0486   0.0181   1.0000
   9.000   1.2055   0.01134   0.00605  -0.0472   0.0137   1.0000
  10.000   1.3038   0.01265   0.00739  -0.0454   0.0108   1.0000
  11.000   1.3994   0.01399   0.00877  -0.0434   0.0093   1.0000
  12.000   1.4879   0.01573   0.01062  -0.0403   0.0080   1.0000
  13.000   1.5705   0.01757   0.01256  -0.0366   0.0071   1.0000
  14.000   1.6294   0.02026   0.01544  -0.0294   0.0061   1.0000
  15.000   1.6794   0.02307   0.01842  -0.0220   0.0058   1.0000
  16.000   1.7165   0.02732   0.02290  -0.0154   0.0055   1.0000
  17.000   1.7382   0.03382   0.02966  -0.0108   0.0051   1.0000
  18.000   1.7365   0.04425   0.04040  -0.0094   0.0048   1.0000
  19.000   1.6963   0.06162   0.05821  -0.0132   0.0046   1.0000
  20.000   1.6125   0.08809   0.08519  -0.0235   0.0044   1.0000
