  
       XFOIL         Version 6.99
  
 Calculated polar for: NACA 2414                                       
  
 1 1 Reynolds number fixed          Mach number fixed         
  
 xtrf =   1.000 (top)        1.000 (bottom)  
 Mach =   0.000     Re =     3.000 e 6     Ncrit =   9.000
  
   alpha    CL        CD       CDp       CM     Top_Xtr  Bot_Xtr
  ------ -------- --------- --------- -------- -------- --------
  -5.000  -0.3215   0.00696   0.00194  -0.0523   0.7775   0.0759
  -4.000  -0.2091   0.00660   0.00156  -0.0522   0.7231   0.1059
  -3.000  -0.0964   0.00632   0.00127  -0.0521   0.6643   0.1507
  -2.000   0.0165   0.00610   0.00109  -0.0522   0.6061   0.2103
  -1.000   0.1298   0.00594   0.00099  -0.0523   0.5512   0.2866
   0.000   0.2429   0.00580   0.00098  -0.0524   0.5014   0.3827
   1.000   0.3554   0.00557   0.00104  -0.0525   0.4599   0.5296
   2.000   0.4679   0.00551   0.00118  -0.0525   0.4192   0.6611
   3.000   0.5789   0.00556   0.00142  -0.0522   0.3720   0.7872
   4.000   0.6860   0.00586   0.00179  -0.0509   0.3126   0.9009
   5.000   0.7882   0.00649   0.00229  -0.0487   0.2474   0.9703
   6.000   0.9103   0.00752   0.00296  -0.0513   0.1753   0.9953
   7.000   1.0325   0.00868   0.00379  -0.0543   0.1147   1.0000
   8.000   1.1189   0.00971   0.00460  -0.0495   0.0794   1.0000
   9.000   1.2124   0.01083   0.00556  -0.0464   0.0558   1.0000
  10.000   1.3063   0.01199   0.00664  -0.0436   0.0422   1.0000
  11.000   1.3953   0.01330   0.00789  -0.0402   0.0329   1.0000
  12.000   1.4743   0.01469   0.00928  -0.0352   0.0274   1.0000
  13.000   1.5431   0.01643   0.01106  -0.0290   0.0235   1.0000
  14.000   1.6053   0.01871   0.01340  -0.0229   0.0204   1.0000
  15.000   1.6577   0.02188   0.01666  -0.0170   0.0179   1.0000
  16.000   1.7045   0.02588   0.02079  -0.0122   0.0165   1.0000
  17.000   1.7352   0.03177   0.02684  -0.0080   0.0150   1.0000
  18.000   1.7569   0.03930   0.03457  -0.0057   0.0140   1.0000
  19.000   1.7541   0.05041   0.04592  -0.0053   0.0129   1.0000
  20.000   1.7396   0.06393   0.05973  -0.0071   0.0124   1.0000
