  
       XFOIL         Version 6.99
  
 Calculated polar for: NACA 2416                                       
  
 1 1 Reynolds number fixed          Mach number fixed         
  
 xtrf =   1.000 (top)        1.000 (bottom)  
 Mach =   0.000     Re =     3.000 e 6     Ncrit =   9.000
  
   alpha    CL        CD       CDp       CM     Top_Xtr  Bot_Xtr
  ------ -------- --------- --------- -------- -------- --------
  -5.000  -0.3226   0.00716   0.00203  -0.0519   0.7274   0.1023
  -4.000  -0.2103   0.00682   0.00168  -0.0517   0.6742   0.1354
  -3.000  -0.0976   0.00657   0.00143  -0.0516   0.6201   0.1781
  -2.000   0.0158   0.00638   0.00126  -0.0517   0.5698   0.2307
  -1.000   0.1292   0.00623   0.00118  -0.0518   0.5230   0.2957
   0.000   0.2429   0.00610   0.00117  -0.0519   0.4829   0.3744
   1.000   0.3557   0.00593   0.00122  -0.0520   0.4474   0.4923
   2.000   0.4686   0.00588   0.00135  -0.0520   0.4132   0.6017
   3.000   0.5806   0.00595   0.00157  -0.0519   0.3749   0.7054
   4.000   0.6898   0.00619   0.00190  -0.0512   0.3270   0.8087
   5.000   0.7959   0.00661   0.00235  -0.0499   0.2766   0.8996
   6.000   0.8962   0.00728   0.00292  -0.0473   0.2253   0.9640
   8.000   1.1333   0.00947   0.00456  -0.0515   0.1252   0.9988
   9.000   1.2188   0.01056   0.00546  -0.0468   0.0936   1.0000
  10.000   1.3025   0.01170   0.00647  -0.0420   0.0727   1.0000
  11.000   1.3795   0.01300   0.00768  -0.0362   0.0577   1.0000
  12.000   1.4524   0.01456   0.00920  -0.0304   0.0473   1.0000
  13.000   1.5205   0.01652   0.01117  -0.0248   0.0397   1.0000
  14.000   1.5815   0.01907   0.01375  -0.0192   0.0338   1.0000
  15.000   1.6356   0.02238   0.01711  -0.0141   0.0298   1.0000
  16.000   1.6794   0.02683   0.02166  -0.0096   0.0265   1.0000
  17.000   1.7146   0.03255   0.02752  -0.0061   0.0243   1.0000
  18.000   1.7351   0.04033   0.03548  -0.0039   0.0224   1.0000
  19.000   1.7409   0.05043   0.04578  -0.0032   0.0208   1.0000
  20.000   1.7301   0.06310   0.05870  -0.0042   0.0194   1.0000
