  
       XFOIL         Version 6.99
  
 Calculated polar for: NACA 66A-315                                    
  
 1 1 Reynolds number fixed          Mach number fixed         
  
 xtrf =   0.250 (top)        0.250 (bottom)  
 Mach =   0.000     Re =     1.000 e 6     Ncrit =   9.000
  
   alpha    CL        CD       CDp       CM     Top_Xtr  Bot_Xtr
  ------ -------- --------- --------- -------- -------- --------
  -5.000  -0.2766   0.01333   0.00524  -0.0593   0.2500   0.0240
  -4.000  -0.1815   0.01222   0.00397  -0.0572   0.2500   0.0259
  -3.000  -0.0824   0.01139   0.00299  -0.0558   0.2500   0.0385
  -2.000   0.0124   0.01009   0.00240  -0.0541   0.2500   0.2500
  -1.000   0.1206   0.01014   0.00233  -0.0544   0.2500   0.2500
   0.000   0.2280   0.01022   0.00236  -0.0545   0.2500   0.2500
   1.000   0.3341   0.01034   0.00248  -0.0544   0.2500   0.2500
   2.000   0.4381   0.01051   0.00270  -0.0539   0.2500   0.2500
   3.000   0.5393   0.01072   0.00300  -0.0529   0.2500   0.2500
   4.000   0.6322   0.01096   0.00342  -0.0502   0.2500   0.2500
   5.000   0.7042   0.01208   0.00440  -0.0442   0.1887   0.2500
   6.000   0.7418   0.01528   0.00684  -0.0334   0.0255   0.2500
   7.000   0.8192   0.01684   0.00858  -0.0294   0.0236   0.2500
   8.000   0.8924   0.01872   0.01062  -0.0251   0.0213   0.2500
   9.000   0.9428   0.02223   0.01436  -0.0182   0.0159   0.2500
  10.000   1.0107   0.02479   0.01713  -0.0143   0.0149   0.2500
  11.000   1.0682   0.02897   0.02165  -0.0090   0.0145   0.2500
  12.000   1.1357   0.03352   0.02659  -0.0056   0.0140   0.2500
  13.000   1.1870   0.03885   0.03238  -0.0014   0.0131   0.2500
  14.000   1.2173   0.04495   0.03890   0.0033   0.0123   0.2500
  15.000   1.2221   0.05406   0.04855   0.0078   0.0117   0.2500
  16.000   1.1919   0.06808   0.06320   0.0101   0.0114   0.2500
  17.000   1.1733   0.08247   0.07800   0.0070   0.0108   0.2500
  18.000   1.1637   0.09837   0.09418  -0.0006   0.0100   0.2500
  19.000   1.1010   0.12762   0.12390  -0.0176   0.0095   0.2500
  20.000   0.8455   0.23023   0.22671  -0.0689   0.0079   0.2500
